[General]
ned-path = .;../Map_block;../Calculation_block;../Drone_block;

network = Physical_layer.simulations.DroneNetwork
sim-time-limit = 120s
debug-on-errors = true

**.mapLoader.heightmap = "heightmap.txt"
**.mapLoader.blockSize = 100

