[General]
ned-path = .;../Map_block;../Calculation_block;../Drone_block;

debug-on-errors = true
record-eventlog = true

network = Physical_layer.simulations.DroneNetwork
sim-time-limit = 500s

**.mapLoader.heightmap = "heightmap.txt"
**.mapLoader.blockSize = 100

